FoamFile
{
    version 2.0;
    format ascii;
    class dictionary;
    object thermophysicalProperties;
}

phases (water air);
pMin 50000;

// Kept consistent with the inherited area-equivalent planar-slit model.
sigma
{
    type constant;
    sigma 0;
}

