FoamFile
{
    version     2.0;
    format      ascii;
    class       dictionary;
    object      thermophysicalProperties;
}

phases          (water air);
pMin            50000;

#include "surfaceTension.runtime"

sigma
{
    type        constant;
    sigma       $surfaceTensionValue;
}
