FoamFile
{
    version 2.0;
    format ascii;
    class dictionary;
    object thermophysicalProperties;
}
phases (water air);
pMin 50000;
sigma
{
    type constant;
    sigma 0.072;
}

